1
9
.tran 10n 105u 45u
3
2
V1
I
1
PS2_CLK
V
1
V1
V
